Circuit: * C:\Users\smats\OneDrive\10_DevTech_GARAGE\SpaceTech_GARAGE\LTSpice\rsp02_LoadSW_OCP_Circuit_v1_2_1\rsp02_LoadSW_OCP_Circuit_v1_2_1.asc

Iload_tran: both pins shorted together -- ignoring.
WARNING: Less than two connections to node N004.  This node is used by VIOEXPDR_TRAN.
WARNING: Less than two connections to node N007.  This node is used by VRRX_TRAN.
WARNING: Less than two connections to node N006.  This node is used by VIN_AC.
Instance "m:u1:u1:t1:ni2": Length shorter than recommended for a level 1 MOSFET.
Instance "m:u1:u1:t2:ni2": Length shorter than recommended for a level 1 MOSFET.
Instance "m:u1:u1:t3:6": Length shorter than recommended for a level 1 MOSFET.
Instance "m:u1:u1:t3:6": Width narrower than recommended for a level 1 MOSFET.
Instance "m:u1:u1:mp1:1": Length shorter than recommended for a level 1 MOSFET.
Instance "m:u1:u1:t4:1": Length shorter than recommended for a level 1 MOSFET.
Instance "m:u1:u1:t4:1": Width narrower than recommended for a level 1 MOSFET.
Instance "m:u1:u1:md1:6": Length shorter than recommended for a level 1 MOSFET.
Instance "m:q1:2": Length shorter than recommended for a level 3 MOSFET.
Instance "m:q1:1": Length shorter than recommended for a level 3 MOSFET.
Ignoring empty pin current: Ix(u1:u1:u2:in+)
Ignoring empty pin current: Ix(u1:u1:u2:in-)
Ignoring empty pin current: Ix(u1:u1:sdcomp:in+)
Ignoring empty pin current: Ix(u1:u1:sdcomp:in-)
Ignoring empty pin current: Ix(u1:u1:vrvbcomp:in+)
Ignoring empty pin current: Ix(u1:u1:vrvbcomp:in-)
.step rtrim=1000
Direct Newton iteration failed to find .op point.  (Use ".option noopiter" to skip.)
Starting Gmin stepping
Gmin = 10
Gmin = 1.07374
Gmin = 0.115292
Gmin = 0.0123794
vernier = 0.5
vernier = 0.666667
Gmin = 0.0043261
vernier = 0.888888
vernier = 0.444444
Gmin = 0.000998862
vernier = 0.222222
vernier = 0.111111
vernier = 0.0555555
Gmin = 0.000828488
vernier = 0.0277778
vernier = 0.0138889
vernier = 0.00694444
vernier = 0.00347222
Gmin = 0.000832034
vernier = 0.00173611
vernier = 0.000868055
vernier = 0.000434028
Gmin = 0
Gmin stepping failed

Starting source stepping with srcstepmethod=0
Source Step = 3.0303%
Source Step = 33.3333%
Source Step = 37.7841%
Source Step = 37.9261%
Source Step = 38.0445%
Source Step = 38.1629%
Source Step = 38.2813%
Source Step = 38.3996%
vernier = 0.00585938
Source Step = 38.5594%
Source Step = 38.737%
Source Step = 38.9145%
Source Step = 39.0921%
Source Step = 39.2696%
vernier = 0.00878906
Source Step = 39.5005%
Source Step = 39.7668%
Source Step = 40.0331%
Source Step = 40.2995%
Source Step = 40.5658%
vernier = 0.0131836
Source Step = 40.8987%
Source Step = 41.2982%
Source Step = 41.6977%
Source Step = 42.0972%
Source Step = 42.4967%
vernier = 0.0197754
Source Step = 42.9761%
Source Step = 43.5754%
Source Step = 44.1747%
Source Step = 44.7739%
Source Step = 45.3732%
vernier = 0.0296631
Source Step = 46.0623%
Source Step = 46.7365%
Source Step = 46.9612%
Source Step = 47.1859%
Source Step = 47.4106%
Source Step = 47.6354%
vernier = 0.0111237
Source Step = 47.8713%
Source Step = 48.2084%
Source Step = 48.5455%
Source Step = 48.8825%
Source Step = 49.2196%
Source Step = 49.5567%
vernier = 0.0166855
Source Step = 50.0623%
Source Step = 50.568%
Source Step = 51.0736%
Source Step = 51.5792%
Source Step = 52.0848%
vernier = 0.0250282
Source Step = 52.818%
Source Step = 53.5764%
Source Step = 54.3348%
Source Step = 55.0933%
Source Step = 55.8517%
vernier = 0.0375423
Source Step = 56.9135%
Source Step = 58.0511%
Source Step = 59.1888%
Source Step = 60.3264%
Source Step = 61.4641%
vernier = 0.0563135
Source Step = 62.9999%
Source Step = 64.7064%
Source Step = 66.4128%
Source Step = 68.1193%
Source Step = 69.8258%
vernier = 0.0844703
Source Step = 72.0442%
Source Step = 74.6039%
Source Step = 77.1636%
Source Step = 79.7233%
Source Step = 82.283%
vernier = 0.126705
Source Step = 85.4826%
Source Step = 89.3222%
Source Step = 93.1618%
Source Step = 97.0013%
Source stepping succeeded in finding the operating point.

Direct Newton iteration failed to find .op point.  (Use ".option noopiter" to skip.)
Starting Gmin stepping
Gmin = 10
Gmin = 1.07374
Gmin = 0.115292
Gmin = 0.0123794
Gmin = 0.00132923
vernier = 0.5
vernier = 0.25
vernier = 0.125
vernier = 0.0625
Gmin = 0.000850706
vernier = 0.03125
vernier = 0.015625
vernier = 0.0078125
Gmin = 0.000831109
vernier = 0.00390625
vernier = 0.00195313
vernier = 0.000976563
vernier = 0.000488281
Gmin = 0.000832021
Gmin = 0
Gmin stepping failed

Starting source stepping with srcstepmethod=0
Source Step = 3.0303%
Source Step = 33.3333%
Source Step = 37.7841%
Source Step = 37.9261%
Source Step = 38.0445%
Source Step = 38.1629%
Source Step = 38.2813%
Source Step = 38.3996%
vernier = 0.00585938
Source Step = 38.5594%
Source Step = 38.737%
Source Step = 38.9145%
Source Step = 39.0921%
Source Step = 39.2696%
vernier = 0.00878906
Source Step = 39.5005%
Source Step = 39.7668%
Source Step = 40.0331%
Source Step = 40.2995%
Source Step = 40.5658%
vernier = 0.0131836
Source Step = 40.8987%
Source Step = 41.2982%
Source Step = 41.6977%
Source Step = 42.0972%
Source Step = 42.4967%
vernier = 0.0197754
Source Step = 42.9761%
Source Step = 43.5754%
Source Step = 44.1747%
Source Step = 44.7739%
Source Step = 45.3732%
vernier = 0.0296631
Source Step = 46.0623%
Source Step = 46.6971%
Source Step = 46.7533%
Source Step = 46.8095%
Source Step = 46.8657%
Source Step = 46.9219%
Source Step = 46.978%
vernier = 0.00278091
Source Step = 47.0595%
Source Step = 47.1438%
Source Step = 47.228%
Source Step = 47.3123%
Source Step = 47.3966%
vernier = 0.00417137
Source Step = 47.5146%
Source Step = 47.641%
Source Step = 47.7674%
Source Step = 47.8938%
Source Step = 48.0202%
vernier = 0.00625706
Source Step = 48.1908%
Source Step = 48.3804%
Source Step = 48.57%
Source Step = 48.7597%
Source Step = 48.9493%
vernier = 0.00938559
Source Step = 49.1958%
Source Step = 49.4802%
Source Step = 49.7646%
Source Step = 50.049%
Source Step = 50.3334%
vernier = 0.0140784
Source Step = 50.6889%
Source Step = 51.1155%
Source Step = 51.5421%
Source Step = 51.9688%
Source Step = 52.3954%
vernier = 0.0211176
Source Step = 52.9073%
Source Step = 53.5473%
Source Step = 54.1872%
Source Step = 54.8271%
Source Step = 55.467%
vernier = 0.0316764
Source Step = 56.2029%
Source Step = 57.1628%
Source Step = 58.1227%
Source Step = 59.0826%
Source Step = 60.0425%
vernier = 0.0475145
Source Step = 61.0984%
Source Step = 62.5382%
Source Step = 63.978%
Source Step = 65.4179%
Source Step = 66.8577%
vernier = 0.0712718
Source Step = 68.3695%
Source Step = 70.5293%
Source Step = 72.689%
Source Step = 74.8488%
Source Step = 77.0085%
Source Step = 79.1683%
vernier = 0.106908
Source Step = 82.4079%
Source Step = 85.6476%
Source Step = 88.8872%
Source Step = 92.1268%
Source Step = 95.3664%
vernier = 0.160362
Source Step = 100%
vernier = 0.0400904
Source Step = 99.6387%
Source Step = 99.7146%
Source Step = 99.7906%
Source Step = 99.8665%
Source Step = 99.9424%
vernier = 0.00375847
Source stepping succeeded in finding the operating point.

Direct Newton iteration failed to find .op point.  (Use ".option noopiter" to skip.)
Starting Gmin stepping
Gmin = 10
Gmin = 1.07374
Gmin = 0.115292
Gmin = 0.0123794
Gmin = 0.00132923
vernier = 0.5
vernier = 0.25
vernier = 0.125
vernier = 0.0625
Gmin = 0.000850706
vernier = 0.03125
vernier = 0.015625
vernier = 0.0078125
Gmin = 0.000831109
vernier = 0.00390625
vernier = 0.00195313
vernier = 0.000976563
vernier = 0.000488281
Gmin = 0.000832021
Gmin = 0
Gmin stepping failed

Starting source stepping with srcstepmethod=0
Source Step = 3.0303%
Source Step = 33.3333%
Source Step = 37.7841%
Source Step = 37.9261%
Source Step = 38.0445%
Source Step = 38.1629%
Source Step = 38.2813%
Source Step = 38.3996%
vernier = 0.00585938
Source Step = 38.5594%
Source Step = 38.737%
Source Step = 38.9145%
Source Step = 39.0921%
Source Step = 39.2696%
vernier = 0.00878906
Source Step = 39.5005%
Source Step = 39.7668%
Source Step = 40.0331%
Source Step = 40.2995%
Source Step = 40.5658%
vernier = 0.0131836
Source Step = 40.8987%
Source Step = 41.2982%
Source Step = 41.6977%
Source Step = 42.0972%
Source Step = 42.4967%
vernier = 0.0197754
Source Step = 42.9761%
Source Step = 43.5754%
Source Step = 44.1747%
Source Step = 44.7739%
Source Step = 45.3732%
vernier = 0.0296631
Source Step = 46.0623%
Source Step = 46.6971%
Source Step = 46.7533%
Source Step = 46.8095%
Source Step = 46.8657%
Source Step = 46.9219%
Source Step = 46.978%
vernier = 0.00278091
Source Step = 47.0595%
Source Step = 47.1438%
Source Step = 47.228%
Source Step = 47.3123%
Source Step = 47.3966%
vernier = 0.00417137
Source Step = 47.5146%
Source Step = 47.641%
Source Step = 47.7674%
Source Step = 47.8938%
Source Step = 48.0202%
vernier = 0.00625706
Source Step = 48.1908%
Source Step = 48.3804%
Source Step = 48.57%
Source Step = 48.7597%
Source Step = 48.9493%
vernier = 0.00938559
Source Step = 49.1958%
Source Step = 49.4802%
Source Step = 49.7646%
Source Step = 50.049%
Source Step = 50.3334%
vernier = 0.0140784
Source Step = 50.6889%
Source Step = 51.1155%
Source Step = 51.5421%
Source Step = 51.9688%
Source Step = 52.3954%
vernier = 0.0211176
Source Step = 52.9073%
Source Step = 53.5473%
Source Step = 54.1872%
Source Step = 54.8271%
Source Step = 55.467%
vernier = 0.0316764
Source Step = 56.2029%
Source Step = 57.1628%
Source Step = 58.1227%
Source Step = 59.0826%
Source Step = 60.0425%
vernier = 0.0475145
Source Step = 61.0984%
Source Step = 62.5382%
Source Step = 63.978%
Source Step = 65.4179%
Source Step = 66.8577%
vernier = 0.0712718
Source Step = 68.3695%
Source Step = 70.5293%
Source Step = 72.689%
Source Step = 74.8488%
Source Step = 77.0085%
Source Step = 79.1683%
vernier = 0.106908
Source Step = 82.4079%
Source Step = 85.6476%
Source Step = 88.8872%
Source Step = 92.1268%
Source Step = 95.3664%
vernier = 0.160362
Source Step = 100%
vernier = 0.0400904
Source Step = 99.6387%
Source Step = 99.7146%
Source Step = 99.7906%
Source Step = 99.8665%
Source Step = 99.9424%
vernier = 0.00375847
Source stepping succeeded in finding the operating point.

.step rtrim=2500
.step rtrim=4000

Date: Sun Feb 14 10:16:00 2021
Total elapsed time: 10.476 seconds.

tnom = 27
temp = 27
method = trap
totiter = 37081
traniter = 0
tranpoints = 0
accept = 0
rejected = 0
matrix size = 185
fillins = 250
solver = Normal
Matrix Compiler1: 21.50 KB object code size  8.2/2.3/[0.5]
Matrix Compiler2: 19.58 KB object code size  2.5/2.3/[0.5]

